data/mat/ieee57.m
function mpc = ieee57

%ieee57 MATPOWER case generated from D:/codex/elec_power_flow/hybrid_power_system_analysis/data/model/ac/ieee57.e

% Auto-generated by scripts/generate_matpower_cases.py.

% ZIP loads are exported as static P/Q at V=1; zero-impedance ties are bus-collapsed.

mpc.version = '2';

mpc.baseMVA = 100;

mpc.bus = [
	1	3	55.00000000000001	17	0	0	1	1.040000000055426	0	57.73502692	1	1.2	0.8;
	2	2	3	88	0	0	1	1.010000000013856	-1.18	57.73502692	1	1.2	0.8;
	3	2	41	21	0	0	1	0.9850000000658179	-5.97	57.73502692	1	1.2	0.8;
	4	1	0	0	0	0	1	0.9810000000256343	-7.320000000000001	57.73502692	1	1.2	0.8;
	5	1	13	4	0	0	1	0.9759999999321035	-8.52	57.73502692	1	1.2	0.8;
	6	2	75	2	0	0	1	0.9799999999722872	-8.65	57.73502692	1	1.2	0.8;
	7	1	0	0	0	0	1	0.9840000000124708	-7.580000000000001	57.73502692	1	1.2	0.8;
	8	2	150	22	0	0	1	1.004999999920326	-4.45	57.73502692	1	1.2	0.8;
	9	2	121	26	0	0	1	0.9799999999722872	-9.56	57.73502692	1	1.2	0.8;
	10	1	5	2	0	0	1	0.98599999994596	-11.43	57.73502692	1	1.2	0.8;
	11	1	0	0	0	0	1	0.9739999999986143	-10.17	57.73502692	1	1.2	0.8;
	12	2	377	24	0	0	1	1.014999999934182	-10.46	57.73502692	1	1.2	0.8;
	13	1	18	2.3	0	0	1	0.9789999999189399	-9.789999999999999	57.73502692	1	1.2	0.8;
	14	1	10.5	5.3	0	0	1	0.9699999999584307	-9.33	57.73502692	1	1.2	0.8;
	15	1	22	5	0	0	1	0.9880000000526543	-7.180000000000001	57.73502692	1	1.2	0.8;
	16	1	43	3	0	0	1	1.013000000000693	-8.85	57.73502692	1	1.2	0.8;
	17	1	42	8	0	0	1	1.017000000040876	-5.39	57.73502692	1	1.2	0.8;
	18	1	27.2	9.800000000000001	0	10	1	1.001000000053347	-11.71	57.73502692	1	1.2	0.8;
	19	1	3.3	0.6	0	0	1	0.9699999999584307	-13.2	57.73502692	1	1.2	0.8;
	20	1	2.3	1	0	0	1	0.9639999999847579	-13.41	57.73502692	1	1.2	0.8;
	21	1	0	0	0	0	1	1.007999999907162	-12.89	57.73502692	1	1.2	0.8;
	22	1	0	0	0	0	1	1.010000000013856	-12.84	57.73502692	1	1.2	0.8;
	23	1	6.3	2.1	0	0	1	1.007999999907162	-12.91	57.73502692	1	1.2	0.8;
	24	1	0	0	0	0	1	0.9989999999466528	-13.25	57.73502692	1	1.2	0.8;
	25	1	6.3	3.2	0	5.899999999999999	1	0.9819999999057765	-18.13	57.73502692	1	1.2	0.8;
	26	1	0	0	0	0	1	0.9590000000644322	-12.95	57.73502692	1	1.2	0.8;
	27	1	9.300000000000001	0.5	0	0	1	0.9819999999057765	-11.48	57.73502692	1	1.2	0.8;
	28	1	4.6	2.3	0	0	1	0.9970000000131636	-10.45	57.73502692	1	1.2	0.8;
	29	1	17	2.6	0	0	1	1.010000000013856	-9.75	57.73502692	1	1.2	0.8;
	30	1	3.600000000000001	1.8	0	0	1	0.9620000000512687	-18.68	57.73502692	1	1.2	0.8;
	31	1	5.8	2.9	0	0	1	0.9360000000498829	-19.34	57.73502692	1	1.2	0.8;
	32	1	1.6	0.8	0	0	1	0.9490000000505759	-18.46	57.73502692	1	1.2	0.8;
	33	1	3.8	1.9	0	0	1	0.9469999999438815	-18.5	57.73502692	1	1.2	0.8;
	34	1	0	0	0	0	1	0.9590000000644322	-14.1	57.73502692	1	1.2	0.8;
	35	1	6	3	0	0	1	0.9659999999182471	-13.86	57.73502692	1	1.2	0.8;
	36	1	0	0	0	0	1	0.9759999999321035	-13.59	57.73502692	1	1.2	0.8;
	37	1	0	0	0	0	1	0.9850000000658179	-13.41	57.73502692	1	1.2	0.8;
	38	1	14	7.000000000000001	0	0	1	1.013000000000693	-12.71	57.73502692	1	1.2	0.8;
	39	1	0	0	0	0	1	0.9829999999591235	-13.46	57.73502692	1	1.2	0.8;
	40	1	0	0	0	0	1	0.9729999999452672	-13.62	57.73502692	1	1.2	0.8;
	41	1	6.3	3	0	0	1	0.9959999999598164	-14.05	57.73502692	1	1.2	0.8;
	42	1	7.1	4.4	0	0	1	0.9659999999182471	-15.5	57.73502692	1	1.2	0.8;
	43	1	2	1	0	0	1	1.010000000013856	-11.33	57.73502692	1	1.2	0.8;
	44	1	12	1.8	0	0	1	1.017000000040876	-11.86	57.73502692	1	1.2	0.8;
	45	1	0	0	0	0	1	1.036000000015242	-9.25	57.73502692	1	1.2	0.8;
	46	1	0	0	0	0	1	1.049999999896077	-11.89	57.73502692	1	1.2	0.8;
	47	1	29.7	11.6	0	0	1	1.033000000028406	-12.49	57.73502692	1	1.2	0.8;
	48	1	0	0	0	0	1	1.027000000054733	-12.59	57.73502692	1	1.2	0.8;
	49	1	18	8.5	0	0	1	1.036000000015242	-12.92	57.73502692	1	1.2	0.8;
	50	1	21	10.5	0	0	1	1.023000000014549	-13.39	57.73502692	1	1.2	0.8;
	51	1	18	5.3	0	0	1	1.052000000002771	-12.52	57.73502692	1	1.2	0.8;
	52	1	4.9	2.2	0	0	1	0.9799999999722872	-11.47	57.73502692	1	1.2	0.8;
	53	1	20	10	0	6.3	1	0.9710000000117779	-12.23	57.73502692	1	1.2	0.8;
	54	1	4.1	1.4	0	0	1	0.9959999999598164	-11.69	57.73502692	1	1.2	0.8;
	55	1	6.800000000000001	3.4	0	0	1	1.030999999921711	-10.78	57.73502692	1	1.2	0.8;
	56	1	7.6	2.2	0	0	1	0.9680000000249415	-16.04	57.73502692	1	1.2	0.8;
	57	1	6.7	2	0	0	1	0.965000000038105	-16.56	57.73502692	1	1.2	0.8;
];

mpc.gen = [
	1	128.9	-16.1	1000000000	-1000000000	1.040000000055426	100	1	1000000000	-1000000000	0	0	0	0	0	0	0	0	0	0	0;
	2	0	-0.8	1000000000	-1000000000	1.010000000013856	100	1	1000000000	-1000000000	0	0	0	0	0	0	0	0	0	0	0;
	3	40	-1	1000000000	-1000000000	0.9850000000658179	100	1	1000000000	-1000000000	0	0	0	0	0	0	0	0	0	0	0;
	6	0	0.8	1000000000	-1000000000	0.9799999999722872	100	1	1000000000	-1000000000	0	0	0	0	0	0	0	0	0	0	0;
	8	450	62.1	1000000000	-1000000000	1.004999999920326	100	1	1000000000	-1000000000	0	0	0	0	0	0	0	0	0	0	0;
	9	0	2.2	1000000000	-1000000000	0.9799999999722872	100	1	1000000000	-1000000000	0	0	0	0	0	0	0	0	0	0	0;
	12	310	128.5	1000000000	-1000000000	1.014999999934182	100	1	1000000000	-1000000000	0	0	0	0	0	0	0	0	0	0	0;
];

mpc.branch = [
	1	2	0.0083	0.028	0.129	0	0	0	0	0	1	-360	360;
	2	3	0.0298	0.08500000000000001	0.0818	0	0	0	0	0	1	-360	360;
	3	4	0.0112	0.0366	0.038	0	0	0	0	0	1	-360	360;
	4	5	0.0625	0.132	0.0258	0	0	0	0	0	1	-360	360;
	4	6	0.043	0.148	0.0348	0	0	0	0	0	1	-360	360;
	6	7	0.02	0.102	0.0276	0	0	0	0	0	1	-360	360;
	6	8	0.0339	0.173	0.047	0	0	0	0	0	1	-360	360;
	8	9	0.009900000000000001	0.0505	0.0548	0	0	0	0	0	1	-360	360;
	9	10	0.0369	0.1679	0.044	0	0	0	0	0	1	-360	360;
	9	11	0.0258	0.0848	0.0218	0	0	0	0	0	1	-360	360;
	9	12	0.0648	0.295	0.0772	0	0	0	0	0	1	-360	360;
	9	13	0.0481	0.158	0.0406	0	0	0	0	0	1	-360	360;
	13	14	0.0132	0.0434	0.011	0	0	0	0	0	1	-360	360;
	13	15	0.0269	0.08690000000000001	0.023	0	0	0	0	0	1	-360	360;
	1	15	0.0178	0.091	0.0988	0	0	0	0	0	1	-360	360;
	1	16	0.0454	0.206	0.0546	0	0	0	0	0	1	-360	360;
	1	17	0.0238	0.108	0.0286	0	0	0	0	0	1	-360	360;
	3	15	0.0162	0.053	0.0544	0	0	0	0	0	1	-360	360;
	5	6	0.0302	0.0641	0.0124	0	0	0	0	0	1	-360	360;
	7	8	0.0139	0.0712	0.0194	0	0	0	0	0	1	-360	360;
	10	12	0.0277	0.1262	0.0328	0	0	0	0	0	1	-360	360;
	11	13	0.0223	0.0732	0.0188	0	0	0	0	0	1	-360	360;
	12	13	0.0178	0.058	0.0604	0	0	0	0	0	1	-360	360;
	12	16	0.018	0.0813	0.0216	0	0	0	0	0	1	-360	360;
	12	17	0.0397	0.179	0.0476	0	0	0	0	0	1	-360	360;
	14	15	0.0171	0.0547	0.0148	0	0	0	0	0	1	-360	360;
	18	19	0.461	0.6850000000000001	0	0	0	0	0	0	1	-360	360;
	19	20	0.283	0.434	0	0	0	0	0	0	1	-360	360;
	21	22	0.0736	0.117	0	0	0	0	0	0	1	-360	360;
	22	23	0.009900000000000001	0.0152	0	0	0	0	0	0	1	-360	360;
	23	24	0.166	0.256	0.008399999999999999	0	0	0	0	0	1	-360	360;
	24	25	0	1.182	0	0	0	0	0	0	1	-360	360;
	24	25	0	1.23	0	0	0	0	0	0	1	-360	360;
	26	27	0.165	0.254	0	0	0	0	0	0	1	-360	360;
	27	28	0.0618	0.0954	0	0	0	0	0	0	1	-360	360;
	28	29	0.0418	0.0587	0	0	0	0	0	0	1	-360	360;
	25	30	0.135	0.202	0	0	0	0	0	0	1	-360	360;
	30	31	0.326	0.497	0	0	0	0	0	0	1	-360	360;
	31	32	0.507	0.755	0	0	0	0	0	0	1	-360	360;
	32	33	0.0392	0.036	0	0	0	0	0	0	1	-360	360;
	34	35	0.052	0.078	0.0032	0	0	0	0	0	1	-360	360;
	35	36	0.043	0.0537	0.0016	0	0	0	0	0	1	-360	360;
	36	37	0.029	0.0366	0	0	0	0	0	0	1	-360	360;
	37	38	0.06510000000000001	0.1009	0.002	0	0	0	0	0	1	-360	360;
	37	39	0.0239	0.0379	0	0	0	0	0	0	1	-360	360;
	36	40	0.03	0.0466	0	0	0	0	0	0	1	-360	360;
	22	38	0.0192	0.0295	0	0	0	0	0	0	1	-360	360;
	41	42	0.207	0.352	0	0	0	0	0	0	1	-360	360;
	41	43	0	0.412	0	0	0	0	0	0	1	-360	360;
	38	44	0.0289	0.0585	0.002	0	0	0	0	0	1	-360	360;
	46	47	0.023	0.068	0.0032	0	0	0	0	0	1	-360	360;
	47	48	0.0182	0.0233	0	0	0	0	0	0	1	-360	360;
	48	49	0.0834	0.129	0.0048	0	0	0	0	0	1	-360	360;
	49	50	0.0801	0.128	0	0	0	0	0	0	1	-360	360;
	50	51	0.1386	0.22	0	0	0	0	0	0	1	-360	360;
	29	52	0.1442	0.187	0	0	0	0	0	0	1	-360	360;
	52	53	0.0762	0.0984	0	0	0	0	0	0	1	-360	360;
	53	54	0.1878	0.232	0	0	0	0	0	0	1	-360	360;
	54	55	0.1732	0.2265	0	0	0	0	0	0	1	-360	360;
	44	45	0.0624	0.1242	0.004	0	0	0	0	0	1	-360	360;
	56	41	0.553	0.549	0	0	0	0	0	0	1	-360	360;
	56	42	0.2125	0.354	0	0	0	0	0	0	1	-360	360;
	57	56	0.174	0.26	0	0	0	0	0	0	1	-360	360;
	38	49	0.115	0.177	0.003	0	0	0	0	0	1	-360	360;
	38	48	0.0312	0.0482	0	0	0	0	0	0	1	-360	360;
	4	18	0	0.555	0	0	0	0	0.97	0	1	-360	360;
	4	18	0	0.43	0	0	0	0	0.978	0	1	-360	360;
	21	20	0	0.7766999999999999	0	0	0	0	1.043	0	1	-360	360;
	24	26	0	0.0473	0	0	0	0	1.043	0	1	-360	360;
	7	29	0	0.0648	0	0	0	0	0.967	0	1	-360	360;
	34	32	0	0.953	0	0	0	0	0.975	0	1	-360	360;
	11	41	0	0.749	0	0	0	0	0.955	0	1	-360	360;
	15	45	0	0.1042	0	0	0	0	0.955	0	1	-360	360;
	14	46	0	0.0735	0	0	0	0	0.9	0	1	-360	360;
	10	51	0	0.0712	0	0	0	0	0.93	0	1	-360	360;
	13	49	0	0.191	0	0	0	0	0.895	0	1	-360	360;
	11	43	0	0.153	0	0	0	0	0.958	0	1	-360	360;
	40	56	0	1.195	0	0	0	0	0.958	0	1	-360	360;
	39	57	0	1.355	0	0	0	0	0.98	0	1	-360	360;
	9	55	0	0.1205	0	0	0	0	0.9399999999999999	0	1	-360	360;
];
